Version 4.1
SHEET 1 880 680
WIRE 160 -16 112 -16
WIRE 272 -16 224 -16
WIRE 464 32 464 -16
WIRE 192 112 192 96
WIRE -48 128 -128 128
WIRE 112 128 112 -16
WIRE 112 128 32 128
WIRE 160 128 112 128
WIRE 272 144 272 -16
WIRE 272 144 224 144
WIRE 304 144 272 144
WIRE -128 160 -128 128
WIRE 160 160 112 160
WIRE 464 160 464 112
WIRE 608 160 464 160
WIRE 192 192 192 176
WIRE 608 192 608 160
WIRE 464 208 464 160
WIRE -128 288 -128 240
WIRE 112 288 112 160
WIRE 464 320 464 288
FLAG -128 288 0
FLAG 112 288 0
FLAG 304 144 Vout
IOPIN 304 144 Out
FLAG 608 192 0
FLAG 464 -16 Vcc
FLAG 192 96 Vcc
FLAG 464 320 Vee
FLAG 192 192 Vee
SYMBOL Opamps\\OP07 192 80 R0
SYMATTR InstName U1
SYMBOL voltage 464 16 R0
WINDOW 123 0 0 Left 2
WINDOW 39 0 0 Left 2
SYMATTR InstName Vcc
SYMATTR Value 30
SYMBOL voltage 464 192 R0
WINDOW 123 0 0 Left 2
WINDOW 39 0 0 Left 2
SYMATTR InstName Vee
SYMATTR Value 30
SYMBOL voltage -128 144 R0
WINDOW 3 6 112 Left 2
WINDOW 123 0 0 Left 2
WINDOW 39 0 0 Left 2
SYMATTR Value PULSE(-2.5 2.5 0 0.0001 0.0001 0.01 0.0202 30)
SYMATTR InstName Vi
SYMBOL cap 224 -32 R90
WINDOW 0 0 32 VBottom 2
WINDOW 3 32 32 VTop 2
SYMATTR InstName Cf
SYMATTR Value 0.0000001
SYMBOL res 48 112 R90
WINDOW 0 0 56 VBottom 2
WINDOW 3 32 56 VTop 2
SYMATTR InstName Ri
SYMATTR Value 4700
TEXT 88 -96 Left 2 ;Op-Amp as Integrator
TEXT -144 328 Left 2 !.tran 100ms
